

----------------------------------------------------------------------------------------------------------------
Gowin OC8051 Rom Maker Tool Read Me File
----------------------------------------------------------------------------------------------------------------

----------------------------------------------------------------------------------------------------------------
1. Introduction
   Convert a .hex file to a .v or a .in file.
----------------------------------------------------------------------------------------------------------------
2. Platform
   Windows 7/10/11.
----------------------------------------------------------------------------------------------------------------
3. Usage
   Input file: a .hex file.
   Output file: a .v or a .in file.
----------------------------------------------------------------------------------------------------------------

----------------------------------------------------------------------------------------------------------------
This tool is from https://github.com/freecores/8051.
----------------------------------------------------------------------------------------------------------------